<?xml version="1.0" encoding="UTF-8"?>

<!-- generated on Di 06 Okt 2020 15:21:57 CEST by Eclipse SUMO netedit Version 1.2.0
<configuration xmlns:xsi="http://www.w3.org/2001/XMLSchema-instance" xsi:noNamespaceSchemaLocation="http://sumo.dlr.de/xsd/netconvertConfiguration.xsd">

    <output>
        <output-file value="/home/franke/master-thesis/lanradio-franke/src/veins_lara/examples/StaticScenario/StaticScenario10Vehicles.net.xml"/>
    </output>

    <processing>
        <offset.disable-normalization value="true"/>
    </processing>

    <junctions>
        <no-turnarounds value="true"/>
    </junctions>

</configuration>
-->

<net version="1.1" junctionCornerDetail="5" limitTurnSpeed="5.50" xmlns:xsi="http://www.w3.org/2001/XMLSchema-instance" xsi:noNamespaceSchemaLocation="http://sumo.dlr.de/xsd/net_file.xsd">

    <location netOffset="0.00,0.00" convBoundary="-100.00,-100.00,100.00,100.00" origBoundary="10000000000.00,10000000000.00,-10000000000.00,-10000000000.00" projParameter="!"/>

    <edge id=":gneJ0_0" function="internal">
        <lane id=":gneJ0_0_0" index="0" speed="6.08" length="7.74" shape="-96.80,101.60 -98.90,101.30 -100.40,100.40 -101.30,98.90 -101.60,96.80"/>
    </edge>
    <edge id=":gneJ0_1" function="internal">
        <lane id=":gneJ0_1_0" index="0" speed="3.90" length="2.58" shape="-98.40,96.80 -98.30,97.50 -98.00,98.00 -97.50,98.30 -96.80,98.40"/>
    </edge>
    <edge id=":gneJ1_0" function="internal">
        <lane id=":gneJ1_0_0" index="0" speed="13.89" length="14.40" shape="-101.60,7.20 -101.60,-7.20"/>
    </edge>
    <edge id=":gneJ1_1" function="internal">
        <lane id=":gneJ1_1_0" index="0" speed="8.00" length="5.93" shape="-101.60,7.20 -101.05,3.35 -100.00,1.60"/>
    </edge>
    <edge id=":gneJ1_6" function="internal">
        <lane id=":gneJ1_6_0" index="0" speed="8.00" length="8.26" shape="-100.00,1.60 -99.40,0.60 -96.65,-1.05 -92.80,-1.60"/>
    </edge>
    <edge id=":gneJ1_2" function="internal">
        <lane id=":gneJ1_2_0" index="0" speed="6.51" length="9.03" shape="-92.80,1.60 -95.25,1.95 -97.00,3.00 -98.05,4.75 -98.40,7.20"/>
    </edge>
    <edge id=":gneJ1_3" function="internal">
        <lane id=":gneJ1_3_0" index="0" speed="8.00" length="14.19" shape="-92.80,1.60 -96.65,1.05 -99.40,-0.60 -101.05,-3.35 -101.60,-7.20"/>
    </edge>
    <edge id=":gneJ1_4" function="internal">
        <lane id=":gneJ1_4_0" index="0" speed="6.51" length="9.03" shape="-98.40,-7.20 -98.05,-4.75 -97.00,-3.00 -95.25,-1.95 -92.80,-1.60"/>
    </edge>
    <edge id=":gneJ1_5" function="internal">
        <lane id=":gneJ1_5_0" index="0" speed="13.89" length="14.40" shape="-98.40,-7.20 -98.40,7.20"/>
    </edge>
    <edge id=":gneJ2_0" function="internal">
        <lane id=":gneJ2_0_0" index="0" speed="6.08" length="7.74" shape="-101.60,-96.80 -101.30,-98.90 -100.40,-100.40 -98.90,-101.30 -96.80,-101.60"/>
    </edge>
    <edge id=":gneJ2_1" function="internal">
        <lane id=":gneJ2_1_0" index="0" speed="3.90" length="2.58" shape="-96.80,-98.40 -97.50,-98.30 -98.00,-98.00 -98.30,-97.50 -98.40,-96.80"/>
    </edge>
    <edge id=":gneJ3_0" function="internal">
        <lane id=":gneJ3_0_0" index="0" speed="6.51" length="9.03" shape="-1.60,-92.80 -1.95,-95.25 -3.00,-97.00 -4.75,-98.05 -7.20,-98.40"/>
    </edge>
    <edge id=":gneJ3_1" function="internal">
        <lane id=":gneJ3_1_0" index="0" speed="8.00" length="14.19" shape="-1.60,-92.80 -1.05,-96.65 0.60,-99.40 3.35,-101.05 7.20,-101.60"/>
    </edge>
    <edge id=":gneJ3_2" function="internal">
        <lane id=":gneJ3_2_0" index="0" speed="6.51" length="9.03" shape="7.20,-98.40 4.75,-98.05 3.00,-97.00 1.95,-95.25 1.60,-92.80"/>
    </edge>
    <edge id=":gneJ3_3" function="internal">
        <lane id=":gneJ3_3_0" index="0" speed="13.89" length="14.40" shape="7.20,-98.40 -7.20,-98.40"/>
    </edge>
    <edge id=":gneJ3_4" function="internal">
        <lane id=":gneJ3_4_0" index="0" speed="13.89" length="14.40" shape="-7.20,-101.60 7.20,-101.60"/>
    </edge>
    <edge id=":gneJ3_5" function="internal">
        <lane id=":gneJ3_5_0" index="0" speed="8.00" length="5.93" shape="-7.20,-101.60 -3.35,-101.05 -1.60,-100.00"/>
    </edge>
    <edge id=":gneJ3_6" function="internal">
        <lane id=":gneJ3_6_0" index="0" speed="8.00" length="8.26" shape="-1.60,-100.00 -0.60,-99.40 1.05,-96.65 1.60,-92.80"/>
    </edge>
    <edge id=":gneJ4_0" function="internal">
        <lane id=":gneJ4_0_0" index="0" speed="3.90" length="2.58" shape="98.40,-96.80 98.30,-97.50 98.00,-98.00 97.50,-98.30 96.80,-98.40"/>
    </edge>
    <edge id=":gneJ4_1" function="internal">
        <lane id=":gneJ4_1_0" index="0" speed="6.08" length="7.74" shape="96.80,-101.60 98.90,-101.30 100.40,-100.40 101.30,-98.90 101.60,-96.80"/>
    </edge>
    <edge id=":gneJ5_0" function="internal">
        <lane id=":gneJ5_0_0" index="0" speed="6.51" length="9.03" shape="98.40,7.20 98.05,4.75 97.00,3.00 95.25,1.95 92.80,1.60"/>
    </edge>
    <edge id=":gneJ5_1" function="internal">
        <lane id=":gneJ5_1_0" index="0" speed="13.89" length="14.40" shape="98.40,7.20 98.40,-7.20"/>
    </edge>
    <edge id=":gneJ5_2" function="internal">
        <lane id=":gneJ5_2_0" index="0" speed="13.89" length="14.40" shape="101.60,-7.20 101.60,7.20"/>
    </edge>
    <edge id=":gneJ5_3" function="internal">
        <lane id=":gneJ5_3_0" index="0" speed="8.00" length="5.93" shape="101.60,-7.20 101.05,-3.35 100.00,-1.60"/>
    </edge>
    <edge id=":gneJ5_6" function="internal">
        <lane id=":gneJ5_6_0" index="0" speed="8.00" length="8.26" shape="100.00,-1.60 99.40,-0.60 96.65,1.05 92.80,1.60"/>
    </edge>
    <edge id=":gneJ5_4" function="internal">
        <lane id=":gneJ5_4_0" index="0" speed="6.51" length="9.03" shape="92.80,-1.60 95.25,-1.95 97.00,-3.00 98.05,-4.75 98.40,-7.20"/>
    </edge>
    <edge id=":gneJ5_5" function="internal">
        <lane id=":gneJ5_5_0" index="0" speed="8.00" length="14.19" shape="92.80,-1.60 96.65,-1.05 99.40,0.60 101.05,3.35 101.60,7.20"/>
    </edge>
    <edge id=":gneJ6_0" function="internal">
        <lane id=":gneJ6_0_0" index="0" speed="6.08" length="7.74" shape="101.60,96.80 101.30,98.90 100.40,100.40 98.90,101.30 96.80,101.60"/>
    </edge>
    <edge id=":gneJ6_1" function="internal">
        <lane id=":gneJ6_1_0" index="0" speed="3.90" length="2.58" shape="96.80,98.40 97.50,98.30 98.00,98.00 98.30,97.50 98.40,96.80"/>
    </edge>
    <edge id=":gneJ7_0" function="internal">
        <lane id=":gneJ7_0_0" index="0" speed="13.89" length="14.40" shape="7.20,101.60 -7.20,101.60"/>
    </edge>
    <edge id=":gneJ7_1" function="internal">
        <lane id=":gneJ7_1_0" index="0" speed="8.00" length="5.93" shape="7.20,101.60 3.35,101.05 1.60,100.00"/>
    </edge>
    <edge id=":gneJ7_6" function="internal">
        <lane id=":gneJ7_6_0" index="0" speed="8.00" length="8.26" shape="1.60,100.00 0.60,99.40 -1.05,96.65 -1.60,92.80"/>
    </edge>
    <edge id=":gneJ7_2" function="internal">
        <lane id=":gneJ7_2_0" index="0" speed="6.51" length="9.03" shape="1.60,92.80 1.95,95.25 3.00,97.00 4.75,98.05 7.20,98.40"/>
    </edge>
    <edge id=":gneJ7_3" function="internal">
        <lane id=":gneJ7_3_0" index="0" speed="8.00" length="14.19" shape="1.60,92.80 1.05,96.65 -0.60,99.40 -3.35,101.05 -7.20,101.60"/>
    </edge>
    <edge id=":gneJ7_4" function="internal">
        <lane id=":gneJ7_4_0" index="0" speed="6.51" length="9.03" shape="-7.20,98.40 -4.75,98.05 -3.00,97.00 -1.95,95.25 -1.60,92.80"/>
    </edge>
    <edge id=":gneJ7_5" function="internal">
        <lane id=":gneJ7_5_0" index="0" speed="13.89" length="14.40" shape="-7.20,98.40 7.20,98.40"/>
    </edge>
    <edge id=":gneJ8_0" function="internal">
        <lane id=":gneJ8_0_0" index="0" speed="6.51" length="9.03" shape="-1.60,7.20 -1.95,4.75 -3.00,3.00 -4.75,1.95 -7.20,1.60"/>
    </edge>
    <edge id=":gneJ8_1" function="internal">
        <lane id=":gneJ8_1_0" index="0" speed="13.89" length="14.40" shape="-1.60,7.20 -1.60,-7.20"/>
    </edge>
    <edge id=":gneJ8_2" function="internal">
        <lane id=":gneJ8_2_0" index="0" speed="8.00" length="5.93" shape="-1.60,7.20 -1.05,3.35 -0.00,1.60"/>
    </edge>
    <edge id=":gneJ8_12" function="internal">
        <lane id=":gneJ8_12_0" index="0" speed="8.00" length="8.26" shape="-0.00,1.60 0.60,0.60 3.35,-1.05 7.20,-1.60"/>
    </edge>
    <edge id=":gneJ8_3" function="internal">
        <lane id=":gneJ8_3_0" index="0" speed="6.51" length="9.03" shape="7.20,1.60 4.75,1.95 3.00,3.00 1.95,4.75 1.60,7.20"/>
    </edge>
    <edge id=":gneJ8_4" function="internal">
        <lane id=":gneJ8_4_0" index="0" speed="13.89" length="14.40" shape="7.20,1.60 -7.20,1.60"/>
    </edge>
    <edge id=":gneJ8_5" function="internal">
        <lane id=":gneJ8_5_0" index="0" speed="8.00" length="14.19" shape="7.20,1.60 3.35,1.05 0.60,-0.60 -1.05,-3.35 -1.60,-7.20"/>
    </edge>
    <edge id=":gneJ8_6" function="internal">
        <lane id=":gneJ8_6_0" index="0" speed="6.51" length="9.03" shape="1.60,-7.20 1.95,-4.75 3.00,-3.00 4.75,-1.95 7.20,-1.60"/>
    </edge>
    <edge id=":gneJ8_7" function="internal">
        <lane id=":gneJ8_7_0" index="0" speed="13.89" length="14.40" shape="1.60,-7.20 1.60,7.20"/>
    </edge>
    <edge id=":gneJ8_8" function="internal">
        <lane id=":gneJ8_8_0" index="0" speed="8.00" length="5.93" shape="1.60,-7.20 1.05,-3.35 0.00,-1.60"/>
    </edge>
    <edge id=":gneJ8_13" function="internal">
        <lane id=":gneJ8_13_0" index="0" speed="8.00" length="8.26" shape="0.00,-1.60 -0.60,-0.60 -3.35,1.05 -7.20,1.60"/>
    </edge>
    <edge id=":gneJ8_9" function="internal">
        <lane id=":gneJ8_9_0" index="0" speed="6.51" length="9.03" shape="-7.20,-1.60 -4.75,-1.95 -3.00,-3.00 -1.95,-4.75 -1.60,-7.20"/>
    </edge>
    <edge id=":gneJ8_10" function="internal">
        <lane id=":gneJ8_10_0" index="0" speed="13.89" length="14.40" shape="-7.20,-1.60 7.20,-1.60"/>
    </edge>
    <edge id=":gneJ8_11" function="internal">
        <lane id=":gneJ8_11_0" index="0" speed="8.00" length="14.19" shape="-7.20,-1.60 -3.35,-1.05 -0.60,0.60 1.05,3.35 1.60,7.20"/>
    </edge>

    <edge id="-gneE0" from="gneJ1" to="gneJ0" priority="-1">
        <lane id="-gneE0_0" index="0" speed="13.89" length="89.60" shape="-98.40,7.20 -98.40,96.80"/>
    </edge>
    <edge id="-gneE1" from="gneJ2" to="gneJ1" priority="-1">
        <lane id="-gneE1_0" index="0" speed="13.89" length="89.60" shape="-98.40,-96.80 -98.40,-7.20"/>
    </edge>
    <edge id="-gneE10" from="gneJ8" to="gneJ1" priority="-1">
        <lane id="-gneE10_0" index="0" speed="13.89" length="85.60" shape="-7.20,1.60 -92.80,1.60"/>
    </edge>
    <edge id="-gneE11" from="gneJ5" to="gneJ8" priority="-1">
        <lane id="-gneE11_0" index="0" speed="13.89" length="85.60" shape="92.80,1.60 7.20,1.60"/>
    </edge>
    <edge id="-gneE2" from="gneJ3" to="gneJ2" priority="-1">
        <lane id="-gneE2_0" index="0" speed="13.89" length="89.60" shape="-7.20,-98.40 -96.80,-98.40"/>
    </edge>
    <edge id="-gneE3" from="gneJ4" to="gneJ3" priority="-1">
        <lane id="-gneE3_0" index="0" speed="13.89" length="89.60" shape="96.80,-98.40 7.20,-98.40"/>
    </edge>
    <edge id="-gneE4" from="gneJ5" to="gneJ4" priority="-1">
        <lane id="-gneE4_0" index="0" speed="13.89" length="89.60" shape="98.40,-7.20 98.40,-96.80"/>
    </edge>
    <edge id="-gneE5" from="gneJ6" to="gneJ5" priority="-1">
        <lane id="-gneE5_0" index="0" speed="13.89" length="89.60" shape="98.40,96.80 98.40,7.20"/>
    </edge>
    <edge id="-gneE6" from="gneJ7" to="gneJ6" priority="-1">
        <lane id="-gneE6_0" index="0" speed="13.89" length="89.60" shape="7.20,98.40 96.80,98.40"/>
    </edge>
    <edge id="-gneE7" from="gneJ0" to="gneJ7" priority="-1">
        <lane id="-gneE7_0" index="0" speed="13.89" length="89.60" shape="-96.80,98.40 -7.20,98.40"/>
    </edge>
    <edge id="-gneE8" from="gneJ8" to="gneJ7" priority="-1">
        <lane id="-gneE8_0" index="0" speed="13.89" length="85.60" shape="1.60,7.20 1.60,92.80"/>
    </edge>
    <edge id="-gneE9" from="gneJ3" to="gneJ8" priority="-1">
        <lane id="-gneE9_0" index="0" speed="13.89" length="85.60" shape="1.60,-92.80 1.60,-7.20"/>
    </edge>
    <edge id="gneE0" from="gneJ0" to="gneJ1" priority="-1">
        <lane id="gneE0_0" index="0" speed="13.89" length="89.60" shape="-101.60,96.80 -101.60,7.20"/>
    </edge>
    <edge id="gneE1" from="gneJ1" to="gneJ2" priority="-1">
        <lane id="gneE1_0" index="0" speed="13.89" length="89.60" shape="-101.60,-7.20 -101.60,-96.80"/>
    </edge>
    <edge id="gneE10" from="gneJ1" to="gneJ8" priority="-1">
        <lane id="gneE10_0" index="0" speed="13.89" length="85.60" shape="-92.80,-1.60 -7.20,-1.60"/>
    </edge>
    <edge id="gneE11" from="gneJ8" to="gneJ5" priority="-1">
        <lane id="gneE11_0" index="0" speed="13.89" length="85.60" shape="7.20,-1.60 92.80,-1.60"/>
    </edge>
    <edge id="gneE2" from="gneJ2" to="gneJ3" priority="-1">
        <lane id="gneE2_0" index="0" speed="13.89" length="89.60" shape="-96.80,-101.60 -7.20,-101.60"/>
    </edge>
    <edge id="gneE3" from="gneJ3" to="gneJ4" priority="-1">
        <lane id="gneE3_0" index="0" speed="13.89" length="89.60" shape="7.20,-101.60 96.80,-101.60"/>
    </edge>
    <edge id="gneE4" from="gneJ4" to="gneJ5" priority="-1">
        <lane id="gneE4_0" index="0" speed="13.89" length="89.60" shape="101.60,-96.80 101.60,-7.20"/>
    </edge>
    <edge id="gneE5" from="gneJ5" to="gneJ6" priority="-1">
        <lane id="gneE5_0" index="0" speed="13.89" length="89.60" shape="101.60,7.20 101.60,96.80"/>
    </edge>
    <edge id="gneE6" from="gneJ6" to="gneJ7" priority="-1">
        <lane id="gneE6_0" index="0" speed="13.89" length="89.60" shape="96.80,101.60 7.20,101.60"/>
    </edge>
    <edge id="gneE7" from="gneJ7" to="gneJ0" priority="-1">
        <lane id="gneE7_0" index="0" speed="13.89" length="89.60" shape="-7.20,101.60 -96.80,101.60"/>
    </edge>
    <edge id="gneE8" from="gneJ7" to="gneJ8" priority="-1">
        <lane id="gneE8_0" index="0" speed="13.89" length="85.60" shape="-1.60,92.80 -1.60,7.20"/>
    </edge>
    <edge id="gneE9" from="gneJ8" to="gneJ3" priority="-1">
        <lane id="gneE9_0" index="0" speed="13.89" length="85.60" shape="-1.60,-7.20 -1.60,-92.80"/>
    </edge>

    <junction id="gneJ0" type="priority" x="-100.00" y="100.00" incLanes="gneE7_0 -gneE0_0" intLanes=":gneJ0_0_0 :gneJ0_1_0" shape="-96.80,103.20 -96.80,96.80 -103.20,96.80 -102.49,100.36 -101.60,101.60 -100.36,102.49 -98.76,103.02">
        <request index="0" response="00" foes="00" cont="0"/>
        <request index="1" response="00" foes="00" cont="0"/>
    </junction>
    <junction id="gneJ1" type="priority" x="-100.00" y="0.00" incLanes="gneE0_0 -gneE10_0 -gneE1_0" intLanes=":gneJ1_0_0 :gneJ1_6_0 :gneJ1_2_0 :gneJ1_3_0 :gneJ1_4_0 :gneJ1_5_0" shape="-103.20,7.20 -96.80,7.20 -96.36,4.98 -95.80,4.20 -95.02,3.64 -94.02,3.31 -92.80,3.20 -92.80,-3.20 -95.02,-3.64 -95.80,-4.20 -96.36,-4.98 -96.69,-5.98 -96.80,-7.20 -103.20,-7.20">
        <request index="0" response="000000" foes="001000" cont="0"/>
        <request index="1" response="110000" foes="111000" cont="1"/>
        <request index="2" response="100000" foes="100000" cont="0"/>
        <request index="3" response="100011" foes="100011" cont="0"/>
        <request index="4" response="000000" foes="000010" cont="0"/>
        <request index="5" response="000000" foes="001110" cont="0"/>
    </junction>
    <junction id="gneJ2" type="priority" x="-100.00" y="-100.00" incLanes="gneE1_0 -gneE2_0" intLanes=":gneJ2_0_0 :gneJ2_1_0" shape="-103.20,-96.80 -96.80,-96.80 -96.80,-103.20 -100.36,-102.49 -101.60,-101.60 -102.49,-100.36 -103.02,-98.76">
        <request index="0" response="00" foes="00" cont="0"/>
        <request index="1" response="00" foes="00" cont="0"/>
    </junction>
    <junction id="gneJ3" type="priority" x="0.00" y="-100.00" incLanes="gneE9_0 -gneE3_0 gneE2_0" intLanes=":gneJ3_0_0 :gneJ3_1_0 :gneJ3_2_0 :gneJ3_3_0 :gneJ3_4_0 :gneJ3_6_0" shape="-3.20,-92.80 3.20,-92.80 3.64,-95.02 4.20,-95.80 4.98,-96.36 5.98,-96.69 7.20,-96.80 7.20,-103.20 -7.20,-103.20 -7.20,-96.80 -4.98,-96.36 -4.20,-95.80 -3.64,-95.02 -3.31,-94.02">
        <request index="0" response="001000" foes="001000" cont="0"/>
        <request index="1" response="111000" foes="111000" cont="0"/>
        <request index="2" response="000000" foes="100000" cont="0"/>
        <request index="3" response="000000" foes="100011" cont="0"/>
        <request index="4" response="000000" foes="000010" cont="0"/>
        <request index="5" response="001100" foes="001110" cont="1"/>
    </junction>
    <junction id="gneJ4" type="priority" x="100.00" y="-100.00" incLanes="-gneE4_0 gneE3_0" intLanes=":gneJ4_0_0 :gneJ4_1_0" shape="96.80,-96.80 103.20,-96.80 102.49,-100.36 101.60,-101.60 100.36,-102.49 98.76,-103.02 96.80,-103.20">
        <request index="0" response="00" foes="00" cont="0"/>
        <request index="1" response="00" foes="00" cont="0"/>
    </junction>
    <junction id="gneJ5" type="priority" x="100.00" y="0.00" incLanes="-gneE5_0 gneE4_0 gneE11_0" intLanes=":gneJ5_0_0 :gneJ5_1_0 :gneJ5_2_0 :gneJ5_6_0 :gneJ5_4_0 :gneJ5_5_0" shape="96.80,7.20 103.20,7.20 103.20,-7.20 96.80,-7.20 96.36,-4.98 95.80,-4.20 95.02,-3.64 94.02,-3.31 92.80,-3.20 92.80,3.20 95.02,3.64 95.80,4.20 96.36,4.98 96.69,5.98">
        <request index="0" response="000000" foes="001000" cont="0"/>
        <request index="1" response="000000" foes="111000" cont="0"/>
        <request index="2" response="000000" foes="100000" cont="0"/>
        <request index="3" response="000011" foes="100011" cont="1"/>
        <request index="4" response="000010" foes="000010" cont="0"/>
        <request index="5" response="001110" foes="001110" cont="0"/>
    </junction>
    <junction id="gneJ6" type="priority" x="100.00" y="100.00" incLanes="gneE5_0 -gneE6_0" intLanes=":gneJ6_0_0 :gneJ6_1_0" shape="103.20,96.80 96.80,96.80 96.80,103.20 100.36,102.49 101.60,101.60 102.49,100.36 103.02,98.76">
        <request index="0" response="00" foes="00" cont="0"/>
        <request index="1" response="00" foes="00" cont="0"/>
    </junction>
    <junction id="gneJ7" type="priority" x="0.00" y="100.00" incLanes="gneE6_0 -gneE8_0 -gneE7_0" intLanes=":gneJ7_0_0 :gneJ7_6_0 :gneJ7_2_0 :gneJ7_3_0 :gneJ7_4_0 :gneJ7_5_0" shape="7.20,103.20 7.20,96.80 4.98,96.36 4.20,95.80 3.64,95.02 3.31,94.02 3.20,92.80 -3.20,92.80 -3.64,95.02 -4.20,95.80 -4.98,96.36 -5.98,96.69 -7.20,96.80 -7.20,103.20">
        <request index="0" response="000000" foes="001000" cont="0"/>
        <request index="1" response="110000" foes="111000" cont="1"/>
        <request index="2" response="100000" foes="100000" cont="0"/>
        <request index="3" response="100011" foes="100011" cont="0"/>
        <request index="4" response="000000" foes="000010" cont="0"/>
        <request index="5" response="000000" foes="001110" cont="0"/>
    </junction>
    <junction id="gneJ8" type="priority" x="0.00" y="0.00" incLanes="gneE8_0 -gneE11_0 -gneE9_0 gneE10_0" intLanes=":gneJ8_0_0 :gneJ8_1_0 :gneJ8_12_0 :gneJ8_3_0 :gneJ8_4_0 :gneJ8_5_0 :gneJ8_6_0 :gneJ8_7_0 :gneJ8_13_0 :gneJ8_9_0 :gneJ8_10_0 :gneJ8_11_0" shape="-3.20,7.20 3.20,7.20 3.64,4.98 4.20,4.20 4.98,3.64 5.98,3.31 7.20,3.20 7.20,-3.20 4.98,-3.64 4.20,-4.20 3.64,-4.98 3.31,-5.98 3.20,-7.20 -3.20,-7.20 -3.64,-4.98 -4.20,-4.20 -4.98,-3.64 -5.98,-3.31 -7.20,-3.20 -7.20,3.20 -4.98,3.64 -4.20,4.20 -3.64,4.98 -3.31,5.98">
        <request index="0"  response="000000000000" foes="000100010000" cont="0"/>
        <request index="1"  response="000000000000" foes="111100110000" cont="0"/>
        <request index="2"  response="000011000000" foes="110011110000" cont="1"/>
        <request index="3"  response="000010000000" foes="100010000000" cont="0"/>
        <request index="4"  response="000110000111" foes="100110000111" cont="0"/>
        <request index="5"  response="011110000110" foes="011110000110" cont="0"/>
        <request index="6"  response="000000000000" foes="010000000100" cont="0"/>
        <request index="7"  response="000000000000" foes="110000111100" cont="0"/>
        <request index="8"  response="000000000011" foes="110000110011" cont="1"/>
        <request index="9"  response="000000000010" foes="000000100010" cont="0"/>
        <request index="10" response="000111000110" foes="000111100110" cont="0"/>
        <request index="11" response="000110011110" foes="000110011110" cont="0"/>
    </junction>

    <junction id=":gneJ1_6_0" type="internal" x="-100.00" y="1.60" incLanes=":gneJ1_1_0 -gneE1_0" intLanes=":gneJ1_3_0 :gneJ1_4_0 :gneJ1_5_0"/>
    <junction id=":gneJ3_6_0" type="internal" x="-1.60" y="-100.00" incLanes=":gneJ3_5_0 -gneE3_0" intLanes=":gneJ3_1_0 :gneJ3_2_0 :gneJ3_3_0"/>
    <junction id=":gneJ5_6_0" type="internal" x="100.00" y="-1.60" incLanes=":gneJ5_3_0 -gneE5_0" intLanes=":gneJ5_0_0 :gneJ5_1_0 :gneJ5_5_0"/>
    <junction id=":gneJ7_6_0" type="internal" x="1.60" y="100.00" incLanes=":gneJ7_1_0 -gneE7_0" intLanes=":gneJ7_3_0 :gneJ7_4_0 :gneJ7_5_0"/>
    <junction id=":gneJ8_12_0" type="internal" x="-0.00" y="1.60" incLanes=":gneJ8_2_0 -gneE9_0" intLanes=":gneJ8_4_0 :gneJ8_5_0 :gneJ8_6_0 :gneJ8_7_0 :gneJ8_10_0 :gneJ8_11_0"/>
    <junction id=":gneJ8_13_0" type="internal" x="0.00" y="-1.60" incLanes=":gneJ8_8_0 gneE8_0" intLanes=":gneJ8_0_0 :gneJ8_1_0 :gneJ8_4_0 :gneJ8_5_0 :gneJ8_10_0 :gneJ8_11_0"/>

    <connection from="-gneE0" to="-gneE7" fromLane="0" toLane="0" via=":gneJ0_1_0" dir="r" state="M"/>
    <connection from="-gneE1" to="gneE10" fromLane="0" toLane="0" via=":gneJ1_4_0" dir="r" state="M"/>
    <connection from="-gneE1" to="-gneE0" fromLane="0" toLane="0" via=":gneJ1_5_0" dir="s" state="M"/>
    <connection from="-gneE10" to="-gneE0" fromLane="0" toLane="0" via=":gneJ1_2_0" dir="r" state="m"/>
    <connection from="-gneE10" to="gneE1" fromLane="0" toLane="0" via=":gneJ1_3_0" dir="l" state="m"/>
    <connection from="-gneE11" to="-gneE8" fromLane="0" toLane="0" via=":gneJ8_3_0" dir="r" state="m"/>
    <connection from="-gneE11" to="-gneE10" fromLane="0" toLane="0" via=":gneJ8_4_0" dir="s" state="m"/>
    <connection from="-gneE11" to="gneE9" fromLane="0" toLane="0" via=":gneJ8_5_0" dir="l" state="m"/>
    <connection from="-gneE2" to="-gneE1" fromLane="0" toLane="0" via=":gneJ2_1_0" dir="r" state="M"/>
    <connection from="-gneE3" to="-gneE9" fromLane="0" toLane="0" via=":gneJ3_2_0" dir="r" state="M"/>
    <connection from="-gneE3" to="-gneE2" fromLane="0" toLane="0" via=":gneJ3_3_0" dir="s" state="M"/>
    <connection from="-gneE4" to="-gneE3" fromLane="0" toLane="0" via=":gneJ4_0_0" dir="r" state="M"/>
    <connection from="-gneE5" to="-gneE11" fromLane="0" toLane="0" via=":gneJ5_0_0" dir="r" state="M"/>
    <connection from="-gneE5" to="-gneE4" fromLane="0" toLane="0" via=":gneJ5_1_0" dir="s" state="M"/>
    <connection from="-gneE6" to="-gneE5" fromLane="0" toLane="0" via=":gneJ6_1_0" dir="r" state="M"/>
    <connection from="-gneE7" to="gneE8" fromLane="0" toLane="0" via=":gneJ7_4_0" dir="r" state="M"/>
    <connection from="-gneE7" to="-gneE6" fromLane="0" toLane="0" via=":gneJ7_5_0" dir="s" state="M"/>
    <connection from="-gneE8" to="-gneE6" fromLane="0" toLane="0" via=":gneJ7_2_0" dir="r" state="m"/>
    <connection from="-gneE8" to="gneE7" fromLane="0" toLane="0" via=":gneJ7_3_0" dir="l" state="m"/>
    <connection from="-gneE9" to="gneE11" fromLane="0" toLane="0" via=":gneJ8_6_0" dir="r" state="M"/>
    <connection from="-gneE9" to="-gneE8" fromLane="0" toLane="0" via=":gneJ8_7_0" dir="s" state="M"/>
    <connection from="-gneE9" to="-gneE10" fromLane="0" toLane="0" via=":gneJ8_8_0" dir="l" state="m"/>
    <connection from="gneE0" to="gneE1" fromLane="0" toLane="0" via=":gneJ1_0_0" dir="s" state="M"/>
    <connection from="gneE0" to="gneE10" fromLane="0" toLane="0" via=":gneJ1_1_0" dir="l" state="m"/>
    <connection from="gneE1" to="gneE2" fromLane="0" toLane="0" via=":gneJ2_0_0" dir="l" state="M"/>
    <connection from="gneE10" to="gneE9" fromLane="0" toLane="0" via=":gneJ8_9_0" dir="r" state="m"/>
    <connection from="gneE10" to="gneE11" fromLane="0" toLane="0" via=":gneJ8_10_0" dir="s" state="m"/>
    <connection from="gneE10" to="-gneE8" fromLane="0" toLane="0" via=":gneJ8_11_0" dir="l" state="m"/>
    <connection from="gneE11" to="-gneE4" fromLane="0" toLane="0" via=":gneJ5_4_0" dir="r" state="m"/>
    <connection from="gneE11" to="gneE5" fromLane="0" toLane="0" via=":gneJ5_5_0" dir="l" state="m"/>
    <connection from="gneE2" to="gneE3" fromLane="0" toLane="0" via=":gneJ3_4_0" dir="s" state="M"/>
    <connection from="gneE2" to="-gneE9" fromLane="0" toLane="0" via=":gneJ3_5_0" dir="l" state="m"/>
    <connection from="gneE3" to="gneE4" fromLane="0" toLane="0" via=":gneJ4_1_0" dir="l" state="M"/>
    <connection from="gneE4" to="gneE5" fromLane="0" toLane="0" via=":gneJ5_2_0" dir="s" state="M"/>
    <connection from="gneE4" to="-gneE11" fromLane="0" toLane="0" via=":gneJ5_3_0" dir="l" state="m"/>
    <connection from="gneE5" to="gneE6" fromLane="0" toLane="0" via=":gneJ6_0_0" dir="l" state="M"/>
    <connection from="gneE6" to="gneE7" fromLane="0" toLane="0" via=":gneJ7_0_0" dir="s" state="M"/>
    <connection from="gneE6" to="gneE8" fromLane="0" toLane="0" via=":gneJ7_1_0" dir="l" state="m"/>
    <connection from="gneE7" to="gneE0" fromLane="0" toLane="0" via=":gneJ0_0_0" dir="l" state="M"/>
    <connection from="gneE8" to="-gneE10" fromLane="0" toLane="0" via=":gneJ8_0_0" dir="r" state="M"/>
    <connection from="gneE8" to="gneE9" fromLane="0" toLane="0" via=":gneJ8_1_0" dir="s" state="M"/>
    <connection from="gneE8" to="gneE11" fromLane="0" toLane="0" via=":gneJ8_2_0" dir="l" state="m"/>
    <connection from="gneE9" to="-gneE2" fromLane="0" toLane="0" via=":gneJ3_0_0" dir="r" state="m"/>
    <connection from="gneE9" to="gneE3" fromLane="0" toLane="0" via=":gneJ3_1_0" dir="l" state="m"/>

    <connection from=":gneJ0_0" to="gneE0" fromLane="0" toLane="0" dir="l" state="M"/>
    <connection from=":gneJ0_1" to="-gneE7" fromLane="0" toLane="0" dir="r" state="M"/>
    <connection from=":gneJ1_0" to="gneE1" fromLane="0" toLane="0" dir="s" state="M"/>
    <connection from=":gneJ1_1" to="gneE10" fromLane="0" toLane="0" via=":gneJ1_6_0" dir="l" state="m"/>
    <connection from=":gneJ1_6" to="gneE10" fromLane="0" toLane="0" dir="l" state="M"/>
    <connection from=":gneJ1_2" to="-gneE0" fromLane="0" toLane="0" dir="r" state="M"/>
    <connection from=":gneJ1_3" to="gneE1" fromLane="0" toLane="0" dir="l" state="M"/>
    <connection from=":gneJ1_4" to="gneE10" fromLane="0" toLane="0" dir="r" state="M"/>
    <connection from=":gneJ1_5" to="-gneE0" fromLane="0" toLane="0" dir="s" state="M"/>
    <connection from=":gneJ2_0" to="gneE2" fromLane="0" toLane="0" dir="l" state="M"/>
    <connection from=":gneJ2_1" to="-gneE1" fromLane="0" toLane="0" dir="r" state="M"/>
    <connection from=":gneJ3_0" to="-gneE2" fromLane="0" toLane="0" dir="r" state="M"/>
    <connection from=":gneJ3_1" to="gneE3" fromLane="0" toLane="0" dir="l" state="M"/>
    <connection from=":gneJ3_2" to="-gneE9" fromLane="0" toLane="0" dir="r" state="M"/>
    <connection from=":gneJ3_3" to="-gneE2" fromLane="0" toLane="0" dir="s" state="M"/>
    <connection from=":gneJ3_4" to="gneE3" fromLane="0" toLane="0" dir="s" state="M"/>
    <connection from=":gneJ3_5" to="-gneE9" fromLane="0" toLane="0" via=":gneJ3_6_0" dir="l" state="m"/>
    <connection from=":gneJ3_6" to="-gneE9" fromLane="0" toLane="0" dir="l" state="M"/>
    <connection from=":gneJ4_0" to="-gneE3" fromLane="0" toLane="0" dir="r" state="M"/>
    <connection from=":gneJ4_1" to="gneE4" fromLane="0" toLane="0" dir="l" state="M"/>
    <connection from=":gneJ5_0" to="-gneE11" fromLane="0" toLane="0" dir="r" state="M"/>
    <connection from=":gneJ5_1" to="-gneE4" fromLane="0" toLane="0" dir="s" state="M"/>
    <connection from=":gneJ5_2" to="gneE5" fromLane="0" toLane="0" dir="s" state="M"/>
    <connection from=":gneJ5_3" to="-gneE11" fromLane="0" toLane="0" via=":gneJ5_6_0" dir="l" state="m"/>
    <connection from=":gneJ5_6" to="-gneE11" fromLane="0" toLane="0" dir="l" state="M"/>
    <connection from=":gneJ5_4" to="-gneE4" fromLane="0" toLane="0" dir="r" state="M"/>
    <connection from=":gneJ5_5" to="gneE5" fromLane="0" toLane="0" dir="l" state="M"/>
    <connection from=":gneJ6_0" to="gneE6" fromLane="0" toLane="0" dir="l" state="M"/>
    <connection from=":gneJ6_1" to="-gneE5" fromLane="0" toLane="0" dir="r" state="M"/>
    <connection from=":gneJ7_0" to="gneE7" fromLane="0" toLane="0" dir="s" state="M"/>
    <connection from=":gneJ7_1" to="gneE8" fromLane="0" toLane="0" via=":gneJ7_6_0" dir="l" state="m"/>
    <connection from=":gneJ7_6" to="gneE8" fromLane="0" toLane="0" dir="l" state="M"/>
    <connection from=":gneJ7_2" to="-gneE6" fromLane="0" toLane="0" dir="r" state="M"/>
    <connection from=":gneJ7_3" to="gneE7" fromLane="0" toLane="0" dir="l" state="M"/>
    <connection from=":gneJ7_4" to="gneE8" fromLane="0" toLane="0" dir="r" state="M"/>
    <connection from=":gneJ7_5" to="-gneE6" fromLane="0" toLane="0" dir="s" state="M"/>
    <connection from=":gneJ8_0" to="-gneE10" fromLane="0" toLane="0" dir="r" state="M"/>
    <connection from=":gneJ8_1" to="gneE9" fromLane="0" toLane="0" dir="s" state="M"/>
    <connection from=":gneJ8_2" to="gneE11" fromLane="0" toLane="0" via=":gneJ8_12_0" dir="l" state="m"/>
    <connection from=":gneJ8_12" to="gneE11" fromLane="0" toLane="0" dir="l" state="M"/>
    <connection from=":gneJ8_3" to="-gneE8" fromLane="0" toLane="0" dir="r" state="M"/>
    <connection from=":gneJ8_4" to="-gneE10" fromLane="0" toLane="0" dir="s" state="M"/>
    <connection from=":gneJ8_5" to="gneE9" fromLane="0" toLane="0" dir="l" state="M"/>
    <connection from=":gneJ8_6" to="gneE11" fromLane="0" toLane="0" dir="r" state="M"/>